*SPEF "IEEE 1481-1998"
*DESIGN "int_pe"
*DATE "Tue Dec 17 19:42:37 2024"
*VENDOR "Cadence Design Systems, Inc."
*PROGRAM "Innovus"
*VERSION "20.10-p004_1"
*DESIGN_FLOW "COUPLING C" "PIN_CAP NONE" "NAME_SCOPE LOCAL"
*DIVIDER /
*DELIMITER :
*BUS_DELIMITER []
*T_UNIT 1 NS
*C_UNIT 1 PF
*R_UNIT 1 OHM
*L_UNIT 1 HENRY

// MMMC spef file for corner 'default_rc_corner'

*NAME_MAP

*1 FE_PSN32_n209
*2 FE_PSN31_n190
*3 FE_PSN30_n357
*4 FE_PSN29_n47
*5 FE_PSN28_accumulator_reg_3
*6 FE_PSN26_FE_RN_4
*7 FE_PSN24_top_in_reg_1
*8 FE_PSN23_FE_RN_1
*9 FE_OCPN22_top_in_reg_0
*10 FE_OCPN21_n300
*11 FE_OCPN20_top_in_reg_2
*12 FE_RN_91_0
*13 FE_RN_90_0
*14 FE_RN_89_0
*15 FE_RN_88_0
*16 FE_RN_87_0
*17 FE_RN_11
*18 FE_OCPN19_top_in_reg_3
*19 FE_RN_86_0
*20 FE_RN_84_0
*21 FE_RN_83_0
*22 FE_RN_82_0
*23 FE_RN_10
*24 FE_RN_81_0
*25 FE_RN_9
*26 FE_RN_80_0
*27 FE_OCPN18_n204
*28 FE_RN_79_0
*29 FE_RN_8
*30 FE_OCPN17_n354
*31 FE_RN_5
*32 FE_RN_78_0
*33 FE_RN_77_0
*34 FE_RN_76_0
*35 FE_RN_75_0
*36 FE_RN_74_0
*37 FE_RN_3
*38 FE_RN_73_0
*39 FE_RN_71_0
*40 FE_RN_68_0
*41 FE_RN_67_0
*42 FE_RN_65_0
*43 FE_RN_64_0
*44 FE_RN_63_0
*45 CTS_8
*46 CTS_7
*47 CTS_6
*48 CTS_10
*49 CTS_9
*50 CTS_3
*51 CTS_2
*52 CTS_1
*53 CTS_5
*54 CTS_4
*55 FE_RN_61_0
*56 FE_RN_60_0
*57 FE_RN_59_0
*58 FE_RN_56_0
*59 FE_RN_55_0
*60 FE_RN_54_0
*61 FE_RN_53_0
*62 FE_RN_51_0
*63 FE_RN_50_0
*64 FE_RN_49_0
*65 FE_RN_48_0
*66 FE_RN_47_0
*67 FE_RN_7
*68 FE_RN_4
*69 FE_RN_45_0
*70 FE_RN_44_0
*71 FE_RN_43_0
*72 FE_RN_6
*73 FE_RN_40_0
*74 FE_RN_39_0
*75 FE_RN_2
*76 FE_RN_37_0
*77 FE_RN_35_0
*78 FE_RN_34_0
*79 FE_RN_1
*80 FE_RN_33_0
*81 FE_RN_31_0
*82 FE_RN_30_0
*83 FE_RN_29_0
*84 FE_RN_26_0
*85 FE_RN_25_0
*86 FE_RN_21_0
*87 FE_RN_18_0
*88 FE_RN_15_0
*89 FE_RN_14_0
*90 FE_RN_12_0
*91 FE_RN_11_0
*92 FE_RN_10_0
*93 FE_RN_9_0
*94 FE_RN_8_0
*95 FE_RN_5_0
*96 FE_RN_4_0
*97 FE_RN_3_0
*98 FE_RN_0_0
*99 left_in[3]
*100 left_in[2]
*101 left_in[1]
*102 left_in[0]
*103 top_in[23]
*104 top_in[22]
*105 top_in[21]
*106 top_in[20]
*107 top_in[19]
*108 top_in[18]
*109 top_in[17]
*110 top_in[16]
*111 top_in[15]
*112 top_in[14]
*113 top_in[13]
*114 top_in[12]
*115 top_in[11]
*116 top_in[10]
*117 top_in[9]
*118 top_in[8]
*119 top_in[7]
*120 top_in[6]
*121 top_in[5]
*122 top_in[4]
*123 top_in[3]
*124 top_in[2]
*125 top_in[1]
*126 top_in[0]
*127 right_out[3]
*128 right_out[2]
*129 right_out[1]
*130 right_out[0]
*131 bottom_out[23]
*132 bottom_out[22]
*133 bottom_out[21]
*134 bottom_out[20]
*135 bottom_out[19]
*136 bottom_out[18]
*137 bottom_out[17]
*138 bottom_out[16]
*139 bottom_out[15]
*140 bottom_out[14]
*141 bottom_out[13]
*142 bottom_out[12]
*143 bottom_out[11]
*144 bottom_out[10]
*145 bottom_out[9]
*146 bottom_out[8]
*147 bottom_out[7]
*148 bottom_out[6]
*149 bottom_out[5]
*150 bottom_out[4]
*151 bottom_out[3]
*152 bottom_out[2]
*153 bottom_out[1]
*154 bottom_out[0]
*155 clk
*156 rst
*157 fsm_out_select_in
*158 N2
*159 N3
*160 N4
*161 N5
*162 N6
*163 N7
*164 N8
*165 N9
*166 N10
*167 N11
*168 N12
*169 N13
*170 N14
*171 N15
*172 N16
*173 N17
*174 N18
*175 N19
*176 N20
*177 N21
*178 N22
*179 N23
*180 N24
*181 N25
*182 n31
*183 n35
*184 n47
*185 n48
*186 n49
*187 n50
*188 n51
*189 n52
*190 n53
*191 n54
*192 n55
*193 n57
*194 n58
*195 n59
*196 n60
*197 n62
*198 n63
*199 n65
*200 n66
*201 n67
*202 n68
*203 n70
*204 n72
*205 n73
*206 n74
*207 n78
*208 n81
*209 n83
*210 n84
*211 n85
*212 n88
*213 n90
*214 n91
*215 n95
*216 n96
*217 n97
*218 n103
*219 n104
*220 n105
*221 n106
*222 n107
*223 n108
*224 n109
*225 n111
*226 n112
*227 n113
*228 n114
*229 n115
*230 n116
*231 n122
*232 n123
*233 n125
*234 n126
*235 n127
*236 n128
*237 n129
*238 n132
*239 n133
*240 n134
*241 n135
*242 n136
*243 n161
*244 n162
*245 n163
*246 n164
*247 n165
*248 n166
*249 n167
*250 n168
*251 n169
*252 n170
*253 n171
*254 n172
*255 n173
*256 n174
*257 n175
*258 n177
*259 n178
*260 n180
*261 n181
*262 n182
*263 n183
*264 n184
*265 n185
*266 n186
*267 n187
*268 n188
*269 n190
*270 n191
*271 n192
*272 n193
*273 n194
*274 n196
*275 n197
*276 n198
*277 n199
*278 n200
*279 n201
*280 n202
*281 n203
*282 n204
*283 n205
*284 n206
*285 n207
*286 n208
*287 n209
*288 n210
*289 n211
*290 n212
*291 n213
*292 n214
*293 n215
*294 n216
*295 n217
*296 n218
*297 n219
*298 n220
*299 n221
*300 n222
*301 n223
*302 n224
*303 n225
*304 n226
*305 n227
*306 n228
*307 n229
*308 n230
*309 n231
*310 n232
*311 n233
*312 n234
*313 n235
*314 n236
*315 n237
*316 n238
*317 n239
*318 n240
*319 n241
*320 n242
*321 n243
*322 n244
*323 n245
*324 n246
*325 n247
*326 n248
*327 n249
*328 n250
*329 n251
*330 n252
*331 n253
*332 n254
*333 n255
*334 n256
*335 n257
*336 n258
*337 n259
*338 n260
*339 n261
*340 n262
*341 n263
*342 n264
*343 n265
*344 n266
*345 n267
*346 n268
*347 n269
*348 n270
*349 n271
*350 n272
*351 n273
*352 n274
*353 n275
*354 n276
*355 n277
*356 n278
*357 n279
*358 n280
*359 n281
*360 n282
*361 n284
*362 n285
*363 n286
*364 n287
*365 n288
*366 n289
*367 n290
*368 n291
*369 n293
*370 n294
*371 n295
*372 n296
*373 n297
*374 n298
*375 n299
*376 n300
*377 n301
*378 n302
*379 n303
*380 n304
*381 n305
*382 n306
*383 n307
*384 n308
*385 n309
*386 n310
*387 n311
*388 n313
*389 n314
*390 n315
*391 n316
*392 n317
*393 n318
*394 n319
*395 n320
*396 n321
*397 n322
*398 n323
*399 n324
*400 n325
*401 n326
*402 n327
*403 n328
*404 n329
*405 n330
*406 n331
*407 n332
*408 n333
*409 n335
*410 n336
*411 n337
*412 n338
*413 n339
*414 n340
*415 n341
*416 n342
*417 n343
*418 n344
*419 n345
*420 n346
*421 n347
*422 n348
*423 n349
*424 n350
*425 n351
*426 n352
*427 n353
*428 n354
*429 n355
*430 n356
*431 n357
*432 n358
*433 n359
*434 n360
*435 n361
*436 n362
*437 n363
*438 n364
*439 n365
*440 n366
*441 n367
*442 n368
*443 n369
*444 n370
*445 n371
*446 n372
*447 n373
*448 n374
*449 n375
*450 n376
*451 n377
*452 n379
*453 n380
*454 n381
*455 n382
*456 n383
*457 n386
*458 n387
*459 n388
*460 n389
*461 n390
*462 n392
*463 n393
*464 n394
*465 n395
*466 n396
*467 n397
*468 n398
*469 n399
*470 n400
*471 n401
*472 n402
*473 n403
*474 n404
*475 accumulator_reg[23]
*476 accumulator_reg[22]
*477 accumulator_reg[21]
*478 accumulator_reg[20]
*479 accumulator_reg[19]
*480 accumulator_reg[18]
*481 accumulator_reg[17]
*482 accumulator_reg[16]
*483 accumulator_reg[15]
*484 accumulator_reg[14]
*485 accumulator_reg[13]
*486 accumulator_reg[12]
*487 accumulator_reg[11]
*488 accumulator_reg[10]
*489 accumulator_reg[9]
*490 accumulator_reg[8]
*491 accumulator_reg[7]
*492 accumulator_reg[6]
*493 accumulator_reg[5]
*494 accumulator_reg[4]
*495 accumulator_reg[3]
*496 accumulator_reg[2]
*497 accumulator_reg[1]
*498 accumulator_reg[0]
*499 top_in_reg[3]
*500 top_in_reg[2]
*501 top_in_reg[1]
*502 top_in_reg[0]
*503 PostRFE_PSC32_n209
*504 PostRFE_PSC31_n190
*505 PostRFE_PSC30_n357
*506 PostRFE_PSC29_n47
*507 PostRFE_PSC28_accumulator_reg_3
*508 PostRFE_PSC26_FE_RN_4
*509 PostRFE_PSC24_top_in_reg_1
*510 PostRFE_PSC23_FE_RN_1
*511 CTSFE_OCPC22_top_in_reg_0
*512 CTSFE_OCPC21_n300
*513 CTSFE_OCPC20_top_in_reg_2
*514 CTSFE_RC_187_0
*515 CTSFE_RC_186_0
*516 CTSFE_RC_185_0
*517 CTSFE_RC_184_0
*518 CTSFE_RC_183_0
*519 CTSFE_RC_182_0
*520 CTSFE_RC_181_0
*521 CTSFE_RC_180_0
*522 CTSFE_RC_179_0
*523 CTSPlaceFE_RC_106_0_dup
*524 CTSFE_OCPC19_top_in_reg_3
*525 CTSFE_RC_178_0
*526 CTSFE_RC_177_0
*527 CTSFE_RC_176_0
*528 CTSFE_RC_175_0
*529 CTSFE_RC_172_0
*530 CTSPlaceFE_RC_90_0_dup
*531 CTSFE_RC_171_0
*532 CTSFE_RC_170_0
*533 CTSU379_dup
*534 CTSFE_RC_169_0
*535 CTSFE_RC_168_0
*536 CTSFE_RC_167_0
*537 CTSFE_RC_166_0
*538 CTSFE_OCPC18_n204
*539 CTSFE_RC_165_0
*540 CTSFE_RC_164_0
*541 CTSPlaceFE_RC_68_0_dup
*542 CTSFE_OCPC17_n354
*543 CTSPlaceFE_RC_128_0_dup
*544 CTSFE_RC_163_0
*545 CTSFE_RC_162_0
*546 CTSFE_RC_161_0
*547 CTSFE_RC_160_0
*548 CTSFE_RC_159_0
*549 CTSFE_RC_158_0
*550 CTSFE_RC_156_0
*551 CTSFE_RC_155_0
*552 CTSFE_RC_154_0
*553 CTSU416_dup
*554 CTSFE_RC_153_0
*555 CTSFE_RC_152_0
*556 CTSFE_RC_151_0
*557 CTSFE_RC_150_0
*558 CTSFE_RC_148_0
*559 CTSFE_RC_147_0
*560 CTSFE_RC_146_0
*561 CTSFE_RC_144_0
*562 CTSFE_RC_143_0
*563 CTSFE_RC_139_0
*564 CTSFE_RC_138_0
*565 CTSFE_RC_137_0
*566 CTSFE_RC_135_0
*567 CTSFE_RC_134_0
*568 CTSFE_RC_133_0
*569 CTSFE_RC_130_0
*570 CTSFE_RC_129_0
*571 CTS_ccl_a_buf_00020
*572 CTS_ccl_a_buf_00018
*573 CTS_ccl_a_buf_00016
*574 CTS_ccl_a_buf_00014
*575 CTS_ccl_a_buf_00030
*576 CTS_ccl_a_buf_00024
*577 CTS_ccl_a_buf_00022
*578 CTS_ccl_a_buf_00012
*579 CTS_ccl_a_buf_00010
*580 CTS_ccl_a_buf_00028
*581 PlaceFE_RC_127_0
*582 PlaceFE_RC_126_0
*583 PlaceFE_RC_125_0
*584 PlaceFE_RC_124_0
*585 PlaceFE_RC_123_0
*586 PlaceFE_RC_122_0
*587 PlaceFE_RC_121_0
*588 PlaceFE_RC_120_0
*589 PlaceFE_RC_119_0
*590 PlaceFE_RC_118_0
*591 PlaceFE_RC_116_0
*592 PlaceFE_RC_115_0
*593 PlaceFE_RC_112_0
*594 PlaceFE_RC_111_0
*595 PlaceFE_RC_110_0
*596 PlaceFE_RC_108_0
*597 PlaceFE_RC_107_0
*598 PlaceFE_RC_106_0
*599 PlaceFE_RC_103_0
*600 PlaceFE_RC_102_0
*601 PlaceFE_RC_101_0
*602 PlaceFE_RC_98_0
*603 PlaceFE_RC_97_0
*604 PlaceFE_RC_96_0
*605 PlaceFE_RC_95_0
*606 PlaceU88_dup
*607 PlaceFE_RC_94_0
*608 PlaceFE_RC_91_0
*609 PlaceFE_RC_90_0
*610 PlaceFE_RC_87_0
*611 PlaceFE_RC_85_0
*612 PlaceFE_RC_84_0
*613 PlaceFE_RC_83_0
*614 PlaceFE_RC_81_0_dup
*615 PlaceFE_RC_81_0
*616 PlaceFE_RC_80_0
*617 PlaceFE_RC_79_0
*618 PlaceFE_RC_78_0
*619 PlaceFE_RC_75_0
*620 PlaceFE_RC_74_0
*621 PlaceFE_RC_73_0
*622 PlaceFE_RC_69_0
*623 PlaceFE_RC_68_0
*624 PlaceFE_RC_67_0
*625 PlaceFE_RC_66_0
*626 PlaceFE_RC_65_0
*627 PlaceU368_dup
*628 PlaceFE_RC_62_0
*629 PlaceFE_RC_61_0
*630 PlaceFE_RC_60_0
*631 PlaceFE_RC_59_0
*632 PlaceFE_RC_56_0
*633 PlaceFE_RC_54_0
*634 PlaceFE_RC_53_0
*635 PlaceFE_RC_52_0
*636 PlaceFE_RC_48_0
*637 PlaceFE_RC_47_0
*638 PlaceFE_RC_46_0
*639 PlaceFE_RC_44_0
*640 PlaceFE_RC_38_0
*641 PlaceFE_RC_33_0
*642 PlaceFE_RC_32_0
*643 PlaceFE_RC_31_0
*644 PlaceFE_RC_30_0
*645 PlaceFE_RC_29_0
*646 PlaceFE_RC_22_0
*647 PlaceFE_RC_21_0
*648 PlaceFE_RC_20_0
*649 PlaceFE_RC_19_0
*650 PlaceFE_RC_18_0
*651 PlaceFE_RC_15_0
*652 PlaceFE_RC_14_0
*653 PlaceFE_RC_13_0
*654 PlaceFE_RC_4_0
*655 top_in_reg_reg_3_
*656 top_in_reg_reg_2_
*657 top_in_reg_reg_1_
*658 top_in_reg_reg_0_
*659 left_in_reg_reg_3_
*660 left_in_reg_reg_2_
*661 left_in_reg_reg_1_
*662 left_in_reg_reg_0_
*663 accumulator_reg_reg_23_
*664 accumulator_reg_reg_22_
*665 accumulator_reg_reg_21_
*666 accumulator_reg_reg_20_
*667 accumulator_reg_reg_19_
*668 accumulator_reg_reg_18_
*669 accumulator_reg_reg_17_
*670 accumulator_reg_reg_16_
*671 accumulator_reg_reg_15_
*672 accumulator_reg_reg_14_
*673 accumulator_reg_reg_13_
*674 accumulator_reg_reg_12_
*675 accumulator_reg_reg_11_
*676 accumulator_reg_reg_10_
*677 accumulator_reg_reg_9_
*678 accumulator_reg_reg_8_
*679 accumulator_reg_reg_7_
*680 accumulator_reg_reg_6_
*681 accumulator_reg_reg_5_
*682 accumulator_reg_reg_4_
*683 accumulator_reg_reg_3_
*684 accumulator_reg_reg_2_
*685 accumulator_reg_reg_1_
*686 accumulator_reg_reg_0_
*687 U4
*688 U82
*689 U83
*690 U85
*691 U87
*692 U91
*693 U93
*694 U95
*695 U96
*696 U97
*697 U99
*698 U100
*699 U101
*700 U102
*701 U103
*702 U104
*703 U105
*704 U106
*705 U108
*706 U109
*707 U110
*708 U111
*709 U112
*710 U113
*711 U114
*712 U115
*713 U116
*714 U119
*715 U120
*716 U121
*717 U122
*718 U123
*719 U124
*720 U125
*721 U126
*722 U127
*723 U128
*724 U129
*725 U130
*726 U131
*727 U132
*728 U133
*729 U134
*730 U135
*731 U136
*732 U137
*733 U138
*734 U139
*735 U140
*736 U141
*737 U142
*738 U143
*739 U144
*740 U145
*741 U146
*742 U147
*743 U149
*744 U150
*745 U152
*746 U154
*747 U155
*748 U156
*749 U157
*750 U158
*751 U159
*752 U160
*753 U161
*754 U162
*755 U163
*756 U164
*757 U165
*758 U166
*759 U167
*760 U168
*761 U187
*762 U188
*763 U189
*764 U190
*765 U191
*766 U192
*767 U193
*768 U194
*769 U195
*770 U196
*771 U197
*772 U198
*773 U199
*774 U200
*775 U201
*776 U202
*777 U204
*778 U205
*779 U206
*780 U207
*781 U208
*782 U209
*783 U210
*784 U211
*785 U215
*786 U218
*787 U219
*788 U220
*789 U221
*790 U222
*791 U223
*792 U226
*793 U228
*794 U229
*795 U230
*796 U231
*797 U232
*798 U236
*799 U239
*800 U241
*801 U242
*802 U243
*803 U246
*804 U248
*805 U249
*806 U254
*807 U255
*808 U256
*809 U257
*810 U263
*811 U264
*812 U265
*813 U266
*814 U267
*815 U269
*816 U270
*817 U271
*818 U272
*819 U273
*820 U275
*821 U278
*822 U280
*823 U281
*824 U282
*825 U283
*826 U288
*827 U289
*828 U291
*829 U292
*830 U293
*831 U294
*832 U295
*833 U298
*834 U299
*835 U300
*836 U301
*837 U302
*838 U303
*839 U304
*840 U305
*841 U306
*842 U307
*843 U332
*844 U333
*845 U334
*846 U335
*847 U336
*848 U337
*849 U338
*850 U339
*851 U340
*852 U341
*853 U342
*854 U343
*855 U347
*856 U348
*857 U349
*858 U350
*859 U352
*860 U353
*861 U354
*862 U356
*863 U357
*864 U358
*865 U364
*866 U365
*867 U369
*868 U370
*869 U372
*870 U373
*871 U374
*872 U375
*873 U376
*874 U377
*875 U378
*876 U379
*877 U380
*878 U381
*879 U383
*880 U384
*881 U385
*882 U386
*883 U387
*884 U388
*885 U389
*886 U390
*887 U391
*888 U392
*889 U393
*890 U394
*891 U395
*892 U396
*893 U397
*894 U398
*895 U399
*896 U400
*897 U402
*898 U403
*899 U405
*900 U406
*901 U407
*902 U408
*903 U410
*904 U411
*905 U413
*906 U414
*907 U415
*908 U418
*909 U419
*910 U421
*911 U422
*912 U423
*913 U424
*914 U426
*915 U428
*916 U431
*917 U432
*918 U434
*919 U438
*920 U440
*921 U441
*922 U442
*923 U444
*924 U448
*925 U451
*926 U452
*927 U453
*928 U454
*929 U455
*930 U456
*931 U457
*932 U458
*933 U459
*934 U460
*935 U461
*936 U462
*937 U463
*938 U464
*939 U465
*940 U466
*941 U467
*942 U468
*943 U469
*944 U470
*945 U471
*946 U472
*947 U473
*948 U474
*949 U475
*950 U476
*951 U477
*952 U478
*953 U479
*954 U480
*955 U481
*956 U482
*957 U483
*958 U484
*959 U485
*960 U486
*961 U487
*962 U488
*963 U489
*964 U490
*965 U491


*PORTS

*155 I *C 0 0
*156 I *C 0 0
*157 I *C 0 0
*99 I *C 0 0
*100 I *C 0 0
*101 I *C 0 0
*102 I *C 0 0
*103 I *C 0 0
*104 I *C 0 0
*105 I *C 0 0
*106 I *C 0 0
*107 I *C 0 0
*108 I *C 0 0
*109 I *C 0 0
*110 I *C 0 0
*111 I *C 0 0
*112 I *C 0 0
*113 I *C 0 0
*114 I *C 0 0
*115 I *C 0 0
*116 I *C 0 0
*117 I *C 0 0
*118 I *C 0 0
*119 I *C 0 0
*120 I *C 0 0
*121 I *C 0 0
*122 I *C 0 0
*123 I *C 0 0
*124 I *C 0 0
*125 I *C 0 0
*126 I *C 0 0
*127 O *C 0 0
*128 O *C 0 0
*129 O *C 0 0
*130 O *C 0 0
*131 O *C 0 0
*132 O *C 0 0
*133 O *C 0 0
*134 O *C 0 0
*135 O *C 0 0
*136 O *C 0 0
*137 O *C 0 0
*138 O *C 0 0
*139 O *C 0 0
*140 O *C 0 0
*141 O *C 0 0
*142 O *C 0 0
*143 O *C 0 0
*144 O *C 0 0
*145 O *C 0 0
*146 O *C 0 0
*147 O *C 0 0
*148 O *C 0 0
*149 O *C 0 0
*150 O *C 0 0
*151 O *C 0 0
*152 O *C 0 0
*153 O *C 0 0
*154 O *C 0 0


*D_NET *1 0.00186957

*CONN
*I *503:Y O *C 42.705 58.095 *L 0 *D BUFX2
*I *569:A I *C 46.025 61.835 *L 0.0018 *D AND2X2
*I *592:B I *C 47.33 62.195 *L 0.00237 *D NOR2X1

*CAP
1 *503:Y 4.41702e-05
2 *569:A 4.16196e-05
3 *592:B 4.16196e-05
4 *1:3 0.000121499
5 *1:4 0.000121499
6 *1:5 0.000101001
7 *1:6 4.71605e-05
8 *1:7 0.000100359
9 *1:8 0.000135241
10 *1:9 7.17612e-05
11 *1:10 7.17612e-05
12 *1:11 3.5732e-05
13 *1:12 2.3412e-05
14 *1:13 7.57708e-05
15 *1:14 3.88398e-05
16 *1:15 6.15007e-05
17 *1:16 3.77399e-05
18 *1:17 2.27207e-05
19 *1:18 2.58203e-05
20 *1:9 *286:8 7.04795e-05
21 *1:10 *286:9 7.04795e-05
22 *1:9 *286:9 0.000105719
23 *1:10 *286:14 0.000105719
24 *1:9 *286:14 7.04795e-05
25 *1:10 *286:15 7.04795e-05
26 *1:11 *286:24 3.91553e-06
27 *1:12 *286:23 3.90788e-06
28 *1:3 *63:7 6.51003e-05
29 *1:4 *63:8 6.51026e-05
30 *1:5 *63:5 9.47985e-06
31 *1:6 *63:6 9.47985e-06

*RES
1 *1:11 *592:B 3.99992
2 *1:12 *1:11 0.33035
3 *1:18 *1:12 0.339358
4 *1:9 *1:18 3.99992
5 *1:16 *569:A 3.99992
6 *1:10 *1:9 4.74993
7 *1:16 *1:17 0.678561
8 *1:15 *1:10 3.99992
9 *1:15 *1:17 0.196471
10 *1:7 *1:15 2.03568
11 *1:8 *1:7 2.03568
12 *1:5 *1:8 4.07137
13 *1:6 *1:5 1.35712
14 *1:3 *1:6 3.99992
15 *1:4 *1:3 10.1786
16 *1:14 *1:4 3.99992
17 *1:13 *1:14 3.99992
18 *1:13 *503:Y 1.1108
*END

*D_NET *2 0.00377385

*CONN
*I *818:A I *C 29.975 58.665 *L 0.0023 *D OR2X2
*I *504:Y O *C 30.1175 54.625 *L 0 *D BUFX4
*I *591:A I *C 40.045 61.895 *L 0.0023 *D OR2X2

*CAP
1 *818:A 6.10305e-05
2 *504:Y 1.84501e-05
3 *591:A 4.16185e-05
4 *2:3 5.02405e-05
5 *2:4 3.18311e-05
6 *2:5 3.11324e-05
7 *2:6 5.21704e-05
8 *2:7 4.62397e-05
9 *2:8 0.000102959
10 *2:9 0.00010889
11 *2:10 5.66788e-05
12 *2:11 5.66788e-05
13 *2:12 3.49484e-05
14 *2:13 4.12708e-05
15 *2:14 2.80308e-05
16 *2:15 3.92594e-05
17 *2:16 1.75102e-05
18 *2:17 2.3441e-05
19 *2:18 3.435e-05
20 *2:19 7.9631e-05
21 *2:20 5.64783e-05
22 *2:21 5.64783e-05
23 *2:22 0.00020532
24 *2:23 7.9631e-05
25 *2:24 0.00020532
26 *2:25 3.22102e-05
27 *2:23 *15:4 4.88688e-05
28 *2:19 *15:5 4.88688e-05
29 *2:24 *15:6 1.40606e-05
30 *2:22 *15:7 1.40606e-05
31 *2:24 *15:4 6.02793e-06
32 *2:22 *15:5 6.03022e-06
33 *2:18 *15:4 6.03022e-06
34 *2:14 *15:5 6.03022e-06
35 *2:24 *283:10 3.36986e-06
36 *2:22 *283:11 3.36986e-06
37 *2:23 *283:12 9.12173e-05
38 *2:19 *283:13 9.12216e-05
39 *2:18 *283:12 3.52375e-05
40 *2:14 *283:13 3.52419e-05
41 *2:18 *283:7 1.30173e-05
42 *2:14 *283:8 1.30217e-05
43 *2:10 *253:20 2.48796e-05
44 *2:11 *253:18 2.48796e-05
45 *2:10 *253:18 4.14595e-05
46 *2:11 *253:17 4.14595e-05
47 *2:12 *253:21 2.60412e-05
48 *2:13 *253:19 2.60383e-05
49 *2:24 *267:13 2.60369e-05
50 *2:22 *267:14 2.60447e-05
51 *2:24 *267:15 0.000132679
52 *2:22 *267:16 0.000132679
53 *2:17 *267:17 6.61311e-05
54 *2:16 *267:18 6.61232e-05
55 *2:4 *267:17 3.30656e-05
56 *2:5 *267:18 3.30577e-05
57 *2:6 *252:17 0.000131258
58 *2:7 *252:18 0.000131258
59 *2:6 *252:19 0.000132256
60 *2:7 *252:20 0.000132248
61 *2:6 *264:6 0.000120334
62 *2:7 *264:5 0.00012033
63 *2:21 *182:128 6.2979e-05
64 *2:20 *182:129 6.29832e-05
65 *2:17 *182:130 1.18998e-05
66 *2:16 *182:131 1.18998e-05
67 *2:8 *182:128 6.418e-05
68 *2:9 *182:129 6.418e-05

*RES
1 *2:6 *591:A 3.99998
2 *2:7 *2:6 10.1787
3 *2:25 *2:7 0.678696
4 *2:12 *2:25 3.99998
5 *2:13 *2:12 1.3571
6 *2:13 *2:10 1.3571
7 *2:11 *2:10 6.7858
8 *2:24 *2:11 1.3571
9 *504:Y *2:15 1.66615
10 *2:22 *2:24 19
11 *2:9 *2:15 3.99998
12 *2:22 *2:23 1.3571
13 *2:9 *2:8 8.8213
14 *2:19 *2:23 8.1429
15 *2:8 *2:20 0.678696
16 *2:18 *2:19 1.3571
17 *2:20 *2:21 4.75
18 *2:14 *2:18 1.3571
19 *2:16 *2:21 0.678696
20 *2:4 *2:14 3.99998
21 *2:16 *2:17 1.3571
22 *2:5 *2:4 1.3571
23 *818:A *2:17 3.99998
24 *2:3 *2:5 3.99998
25 *2:3 *818:A 2.22163
*END

*D_NET *3 0.00731924

*CONN
*I *505:Y O *C 40.5675 59.565 *L 0 *D BUFX4
*I *632:A I *C 51.635 63.605 *L 0.00211 *D NAND2X1
*I *938:A I *C 58.9675 67.135 *L 0.00155 *D INVX1
*I *643:A I *C 55.5525 58.915 *L 0.00274 *D OAI21X1

*CAP
1 *505:Y 4.16193e-05
2 *632:A 9.53656e-05
3 *938:A 4.16193e-05
4 *643:A 4.16193e-05
5 *3:4 2.55111e-05
6 *3:5 1.28551e-05
7 *3:6 0.0001348
8 *3:7 0.000148158
9 *3:8 5.33848e-05
10 *3:9 5.33848e-05
11 *3:10 2.29967e-05
12 *3:11 2.29967e-05
13 *3:12 2.8869e-05
14 *3:13 2.95657e-05
15 *3:14 0.00023343
16 *3:15 0.0003433
17 *3:16 0.000122202
18 *3:17 9.93206e-06
19 *3:18 2.22528e-05
20 *3:19 2.296e-05
21 *3:20 3.00319e-05
22 *3:21 0.000241994
23 *3:22 0.000215891
24 *3:23 5.4422e-05
25 *3:24 5.4422e-05
26 *3:25 0.000269847
27 *3:26 0.000269847
28 *3:27 0.000139918
29 *3:28 0.000139918
30 *3:29 4.03778e-05
31 *3:30 6.1803e-05
32 *3:31 6.1803e-05
33 *3:32 4.03778e-05
34 *3:33 3.13625e-05
35 *3:34 0.000116178
36 *3:35 0.000155524
37 *3:36 0.00015622
38 *3:37 2.58202e-05
39 *3:27 *8:16 9.35972e-05
40 *3:28 *8:17 9.36079e-05
41 *3:29 *8:16 7.74117e-05
42 *3:30 *8:17 7.74224e-05
43 *3:31 *8:16 7.74224e-05
44 *3:32 *8:17 7.74224e-05
45 *3:23 *8:22 1.506e-05
46 *3:24 *8:21 1.506e-05
47 *3:15 *8:22 3.4847e-05
48 *3:16 *8:21 3.4847e-05
49 *3:33 *8:14 4.41617e-06
50 *3:21 *8:15 4.40546e-06
51 *3:21 *8:14 4.84707e-05
52 *3:22 *8:15 4.84707e-05
53 *3:14 *330:146 3.3073e-05
54 *3:15 *330:147 3.30747e-05
55 *3:14 *330:148 4.33047e-06
56 *3:15 *330:136 4.33047e-06
57 *3:36 *330:144 1.60415e-05
58 *3:35 *330:145 1.60415e-05
59 *3:21 *29:12 9.12194e-05
60 *3:22 *29:10 9.12194e-05
61 *3:21 *29:14 9.11413e-05
62 *3:22 *29:11 9.11413e-05
63 *3:21 *29:16 7.04857e-05
64 *3:22 *29:13 7.04771e-05
65 *3:19 *29:9 3.14215e-05
66 *3:20 *29:8 3.14215e-05
67 *3:21 *265:2 0.000775272
68 *3:22 *265:3 0.000775248
69 *3:21 *494:18 1.30223e-05
70 *3:22 *494:17 1.30164e-05
71 *3:23 *494:8 1.23105e-05
72 *3:24 *494:9 1.23105e-05
73 *3:21 *494:16 1.65871e-05
74 *3:22 *494:10 1.65929e-05
75 *3:21 *494:10 7.46271e-05
76 *3:22 *494:11 7.46271e-05
77 *3:21 *494:11 7.4633e-05
78 *3:22 *494:13 7.46271e-05
79 *3:19 *67:7 6.23643e-05
80 *3:20 *67:5 6.23662e-05
81 *3:15 *368:20 4.82648e-05
82 *3:16 *368:21 4.82648e-05
83 *3:17 *368:4 4.01064e-06
84 *3:18 *368:5 4.00904e-06
85 *3:6 *441:10 5.94974e-06
86 *3:7 *441:3 5.94974e-06
87 *3:6 *441:3 7.73644e-05
88 *3:7 *441:4 7.73669e-05

*RES
1 *3:18 *643:A 4.00023
2 *3:18 *3:17 0.339193
3 *3:37 *3:17 0.339193
4 *3:8 *3:37 4.00023
5 *3:9 *3:8 1.46432
6 *3:32 *3:9 4.00023
7 *3:32 *3:31 1.35726
8 *3:4 *938:A 4.00023
9 *3:31 *3:28 1.00006
10 *3:5 *3:4 0.330433
11 *3:28 *3:27 6.7858
12 *3:6 *3:5 0.321187
13 *3:30 *3:27 1.00006
14 *3:7 *3:6 9.49982
15 *3:30 *3:29 1.35726
16 *3:14 *3:7 4.00023
17 *3:15 *3:29 4.00023
18 *3:15 *3:14 13.6787
19 *3:16 *3:15 11.4284
20 *3:34 *632:A 7.77515
21 *3:16 *3:23 0.678385
22 *3:35 *3:34 4.00023
23 *3:24 *3:23 4.07128
24 *3:35 *3:36 2.71451
25 *3:33 *3:24 0.678385
26 *3:21 *3:36 4.00023
27 *3:21 *3:33 1.35726
28 *3:22 *3:21 31.8929
29 *3:19 *3:22 0.678385
30 *3:20 *3:19 3.24982
31 *3:25 *3:20 4.00023
32 *3:26 *3:25 9.16063
33 *3:10 *3:26 4.00023
34 *3:11 *3:10 0.143074
35 *3:12 *505:Y 4.00023
36 *3:13 *3:11 4.00023
37 *3:13 *3:12 0.16984
*END

*D_NET *4 0.000355478

*CONN
*I *506:Y O *C 22.755 52.585 *L 0 *D BUFX2
*I *707:A I *C 22.845 48.845 *L 0.0018 *D AND2X2

*CAP
1 *506:Y 4.16197e-05
2 *707:A 4.16197e-05
3 *4:2 0.00010785
4 *4:3 0.00012309
5 *4:4 2.82711e-05
6 *4:5 1.30293e-05

*RES
1 *4:4 *707:A 3.99998
2 *4:4 *4:5 0.339296
3 *4:3 *506:Y 3.99998
4 *4:2 *4:5 0.196439
5 *4:2 *4:3 6.10714
*END

*D_NET *5 0.00249976

*CONN
*I *507:Y O *C 38.335 67.975 *L 0 *D BUFX2
*I *845:B I *C 37.195 68.545 *L 0.00274 *D MUX2X1
*I *552:B I *C 42.67 63.89 *L 0.00559 *D XNOR2X1

*CAP
1 *507:Y 4.1619e-05
2 *845:B 4.1619e-05
3 *552:B 1.84514e-05
4 *5:3 3.54579e-05
5 *5:4 3.47571e-05
6 *5:5 7.97888e-05
7 *5:6 7.292e-05
8 *5:7 2.34324e-05
9 *5:8 3.62317e-05
10 *5:9 0.0001496
11 *5:10 6.88773e-05
12 *5:11 0.00010119
13 *5:12 6.33097e-05
14 *5:13 6.33097e-05
15 *5:14 4.941e-05
16 *5:15 4.27809e-05
17 *5:16 3.88386e-05
18 *5:17 3.92587e-05
19 *5:11 *252:24 0.000211445
20 *5:9 *252:25 0.000211438
21 *5:11 *228:15 0.000176202
22 *5:9 *228:16 0.000176196
23 *5:11 *228:24 1.73552e-05
24 *5:9 *228:21 1.73486e-05
25 *5:12 *228:12 1.96551e-05
26 *5:13 *228:28 1.96617e-05
27 *5:14 *228:12 3.35076e-06
28 *5:15 *228:28 3.35076e-06
29 *5:9 *244:2 7.81215e-05
30 *5:10 *244:3 7.81191e-05
31 *5:5 *277:4 0.000113361
32 *5:6 *277:5 0.000113357
33 *5:5 *284:15 6.29803e-05
34 *5:6 *284:14 6.29784e-05
35 *5:12 *444:27 4.00913e-06
36 *5:13 *444:28 4.01118e-06
37 *5:7 *444:29 2.51895e-05
38 *5:8 *444:25 2.51915e-05
39 *5:7 *444:25 3.77893e-05
40 *5:8 *444:26 3.77913e-05

*RES
1 *552:B *5:17 1.66623
2 *5:6 *5:17 3.99998
3 *5:6 *5:5 7.4642
4 *5:8 *5:5 1.35725
5 *5:8 *5:7 3.3929
6 *5:7 *5:13 0.678623
7 *5:13 *5:12 4.74993
8 *5:15 *5:12 0.678623
9 *5:15 *5:14 1.35725
10 *5:11 *5:14 3.99998
11 *5:16 *507:Y 3.99998
12 *5:9 *5:11 14.25
13 *5:9 *5:16 3.99998
14 *5:10 *5:9 4.07152
15 *5:3 *5:10 3.99998
16 *5:4 *5:3 0.919544
17 *845:B *5:4 3.99998
*END

*D_NET *6 0.000662921

*CONN
*I *508:Y O *C 22.945 62.465 *L 0 *D BUFX2
*I *957:B I *C 24.43 63.89 *L 0.00559 *D XNOR2X1

*CAP
1 *508:Y 4.16197e-05
2 *957:B 4.16197e-05
3 *6:2 9.2401e-05
4 *6:3 9.30999e-05
5 *6:4 5.51099e-05
6 *6:5 5.51099e-05
7 *6:6 3.8841e-05
8 *6:4 *461:5 7.04811e-05
9 *6:5 *461:6 7.04789e-05
10 *6:4 *185:2 5.20811e-05
11 *6:5 *185:3 5.20795e-05

*RES
1 *6:2 *957:B 3.99998
2 *6:3 *6:2 5.75
3 *6:4 *6:3 3.99998
4 *6:5 *6:4 5.42853
5 *6:6 *6:5 3.99998
6 *508:Y *6:6 3.99998
*END

*D_NET *7 0.00129409

*CONN
*I *509:Y O *C 36.625 57.525 *L 0 *D BUFX2
*I *849:A I *C 32.97 57.0815 *L 0.0028 *D MUX2X1

*CAP
1 *509:Y 4.16198e-05
2 *849:A 4.16198e-05
3 *7:2 2.4359e-05
4 *7:3 8.66896e-06
5 *7:4 5.435e-05
6 *7:5 5.435e-05
7 *7:6 2.24499e-05
8 *7:7 3.347e-05
9 *7:8 2.64e-05
10 *7:9 2.61404e-05
11 *7:10 3.78281e-05
12 *7:11 3.85289e-05
13 *7:12 3.32096e-05
14 *7:12 *266:17 7.81222e-05
15 *7:9 *266:18 7.81162e-05
16 *7:8 *266:17 2.60387e-05
17 *7:7 *266:18 2.60447e-05
18 *7:4 *266:17 9.12161e-05
19 *7:5 *266:18 9.12221e-05
20 *7:12 *252:11 0.000176201
21 *7:9 *252:12 0.000176196
22 *7:4 *271:20 5.39706e-05
23 *7:5 *271:21 5.3969e-05

*RES
1 *7:10 *509:Y 4.00003
2 *7:10 *7:11 0.678592
3 *7:12 *7:11 4.00003
4 *7:9 *7:12 4.07144
5 *7:4 *7:9 0.678592
6 *7:5 *7:4 7.46429
7 *7:5 *7:8 0.678592
8 *7:7 *7:8 1.35718
9 *7:2 *849:A 4.00003
10 *7:6 *7:7 4.00003
11 *7:3 *7:2 0.330412
12 *7:3 *7:6 0.160707
*END

*D_NET *8 0.00637543

*CONN
*I *510:Y O *C 42.0875 65.935 *L 0 *D BUFX4
*I *614:B I *C 55.1575 53.975 *L 0.00283 *D OAI21X1
*I *615:B I *C 56.1075 53.975 *L 0.00283 *D OAI21X1

*CAP
1 *510:Y 1.8444e-05
2 *614:B 4.16201e-05
3 *615:B 4.16201e-05
4 *8:3 4.78313e-05
5 *8:4 6.33628e-05
6 *8:5 3.60109e-05
7 *8:6 2.88572e-05
8 *8:7 2.88572e-05
9 *8:8 5.51552e-05
10 *8:9 5.51552e-05
11 *8:10 2.03028e-05
12 *8:11 2.09966e-05
13 *8:12 2.75744e-05
14 *8:13 3.4643e-05
15 *8:14 0.000299221
16 *8:15 0.000287963
17 *8:16 0.000425095
18 *8:17 0.000428931
19 *8:18 5.43567e-05
20 *8:19 5.43567e-05
21 *8:20 3.92638e-05
22 *8:21 0.000101808
23 *8:22 0.000101808
24 *8:23 3.89104e-05
25 *8:24 6.77349e-05
26 *8:25 7.15703e-05
27 *8:26 3.47216e-05
28 *8:27 0.00023214
29 *8:28 0.00023214
30 *8:29 3.88384e-05
31 *8:30 3.88384e-05
32 *8:16 *3:27 9.35972e-05
33 *8:17 *3:28 9.36079e-05
34 *8:16 *3:29 7.74117e-05
35 *8:17 *3:30 7.74224e-05
36 *8:16 *3:31 7.74224e-05
37 *8:17 *3:32 7.74224e-05
38 *8:22 *3:23 1.506e-05
39 *8:21 *3:24 1.506e-05
40 *8:22 *3:15 3.4847e-05
41 *8:21 *3:16 3.4847e-05
42 *8:14 *3:33 4.41617e-06
43 *8:15 *3:21 4.40546e-06
44 *8:14 *3:21 4.84707e-05
45 *8:15 *3:22 4.84707e-05
46 *8:26 *330:148 8.34609e-05
47 *8:23 *330:136 8.34552e-05
48 *8:22 *330:136 9.95117e-05
49 *8:21 *330:137 9.95061e-05
50 *8:3 *330:109 3.01379e-06
51 *8:4 *330:110 3.00811e-06
52 *8:12 *288:8 7.04814e-05
53 *8:13 *288:5 7.04793e-05
54 *8:8 *57:10 0.000387636
55 *8:9 *57:9 0.000387624
56 *8:8 *183:10 0.000140956
57 *8:9 *183:7 0.000140961
58 *8:6 *183:8 2.38094e-05
59 *8:7 *183:6 2.38094e-05
60 *8:8 *284:6 7.04814e-05
61 *8:9 *284:7 7.04793e-05
62 *8:3 *361:11 0.000140962
63 *8:4 *361:10 0.000140957
64 *8:4 *361:11 1.76209e-05
65 *8:5 *361:10 1.76209e-05
66 *8:6 *17:12 0.00013225
67 *8:7 *17:13 0.000132246
68 *8:10 *276:6 6.61281e-05
69 *8:11 *276:7 6.61261e-05
70 *8:10 *444:4 6.61281e-05
71 *8:11 *444:5 6.61261e-05

*RES
1 *8:30 *615:B 3.99998
2 *8:29 *614:B 3.99998
3 *8:3 *8:30 3.99998
4 *8:4 *8:29 3.99998
5 *8:4 *8:3 3.3929
6 *8:5 *8:4 1.4464
7 *8:24 *8:5 3.99998
8 *8:24 *8:25 1.3571
9 *8:25 *8:27 0.500107
10 *8:27 *8:28 6.4463
11 *8:17 *8:28 0.500107
12 *8:17 *8:16 14.5892
13 *8:26 *8:16 3.99998
14 *8:23 *8:26 1.60701
15 *8:22 *8:23 1.3571
16 *8:21 *8:22 12.2142
17 *8:21 *8:14 1.3571
18 *8:15 *8:14 19
19 *8:15 *8:18 0.678696
20 *8:19 *8:18 4.0713
21 *8:12 *8:19 0.678696
22 *8:13 *8:12 1.3571
23 *8:6 *8:13 3.99998
24 *8:7 *8:6 2.7142
25 *8:8 *8:7 3.99998
26 *8:20 *510:Y 1.66615
27 *8:9 *8:8 7.4642
28 *8:10 *8:20 3.99998
29 *8:11 *8:9 3.99998
30 *8:11 *8:10 1.3571
*END

*D_NET *9 0.00058179

*CONN
*I *511:Y O *C 32.255 42.705 *L 0 *D BUFX2
*I *847:A I *C 31.26 42.2615 *L 0.0028 *D MUX2X1

*CAP
1 *511:Y 1.628e-05
2 *847:A 4.16202e-05
3 *9:2 3.05903e-05
4 *9:3 3.19799e-05
5 *9:4 4.63399e-05
6 *9:5 4.788e-05
7 *9:6 3.88403e-05
8 *9:7 4.63399e-05
9 *9:7 *498:10 0.000140962
10 *9:4 *498:11 0.000140958

*RES
1 *9:5 *511:Y 1.11078
2 *9:6 *9:5 4
3 *9:7 *9:6 4
4 *9:4 *9:7 2.71429
5 *9:3 *9:4 4
6 *9:2 *9:3 0.160706
7 *847:A *9:2 4
*END

*D_NET *10 0.000204881

*CONN
*I *512:Y O *C 50.875 28.455 *L 0 *D BUFX2
*I *600:A I *C 50.42 29.43 *L 0.0054 *D XOR2X1

*CAP
1 *512:Y 4.16205e-05
2 *600:A 4.16205e-05
3 *10:2 3.75897e-05
4 *10:3 2.02598e-05
5 *10:4 6.379e-05

*RES
1 *10:3 *600:A 4
2 *10:4 *512:Y 4
3 *10:2 *10:3 0.0535889
4 *10:2 *10:4 2.03571
*END

*D_NET *11 0.00091927

*CONN
*I *513:Y O *C 33.015 62.465 *L 0 *D BUFX2
*I *843:A I *C 29.93 63.4785 *L 0.0028 *D MUX2X1

*CAP
1 *513:Y 4.16199e-05
2 *843:A 1.84521e-05
3 *11:2 0.000203991
4 *11:3 0.000203991
5 *11:4 3.92604e-05
6 *11:5 4.69301e-05
7 *11:6 9.81122e-05
8 *11:7 9.78787e-05
9 *11:8 3.88402e-05
10 *11:2 *500:11 6.5101e-05
11 *11:3 *500:12 6.5099e-05

*RES
1 *11:8 *513:Y 3.99992
2 *11:2 *11:8 3.99992
3 *11:3 *11:2 10.1786
4 *11:6 *11:3 3.99992
5 *11:6 *11:7 2.71424
6 *11:5 *11:7 1.01792
7 *11:4 *843:A 1.66619
8 *11:4 *11:5 3.99992
*END

*D_NET *12 0.000669162

*CONN
*I *514:Y O *C 64.935 41.755 *L 0 *D NAND2X1
*I *515:A I *C 65.8125 39.155 *L 0.00274 *D OAI21X1

*CAP
1 *514:Y 4.16199e-05
2 *515:A 4.16199e-05
3 *12:2 4.57709e-05
4 *12:3 4.503e-05
5 *12:4 2.701e-05
6 *12:5 3.17302e-05
7 *12:6 3.77407e-05
8 *12:7 9.37389e-05
9 *12:8 9.37403e-05
10 *12:9 2.57698e-05
11 *12:10 3.70899e-05
12 *12:4 *305:5 6.61291e-05
13 *12:3 *305:6 6.61314e-05
14 *12:6 *305:7 8.01976e-06
15 *12:5 *305:8 8.01976e-06

*RES
1 *12:9 *515:A 3.99998
2 *12:9 *12:10 0.339275
3 *12:3 *12:10 1.69645
4 *12:3 *12:4 1.35717
5 *12:4 *12:7 0.678551
6 *12:7 *12:8 4.75
7 *12:5 *12:8 0.678551
8 *12:5 *12:6 1.35717
9 *12:2 *12:6 1.01783
10 *514:Y *12:2 3.99998
*END

*D_NET *13 0.000746102

*CONN
*I *519:A I *C 27.2425 61.645 *L 0.00274 *D OAI21X1
*I *518:Y O *C 24.915 61.09 *L 0 *D AOI21X1

*CAP
1 *519:A 4.16201e-05
2 *518:Y 4.16201e-05
3 *13:2 3.29601e-05
4 *13:3 3.36612e-05
5 *13:4 6.38094e-05
6 *13:5 6.38103e-05
7 *13:6 3.25103e-05
8 *13:7 2.54394e-05
9 *13:8 2.50499e-05
10 *13:9 2.58201e-05
11 *13:10 3.21199e-05
12 *13:11 2.59204e-05
13 *13:12 3.82404e-05
14 *13:10 *460:8 3.52405e-05
15 *13:8 *460:9 3.52405e-05
16 *13:7 *460:9 7.04771e-05
17 *13:6 *460:10 7.04811e-05
18 *13:4 *460:9 2.60404e-05
19 *13:5 *460:10 2.60404e-05

*RES
1 *13:12 *519:A 4.00003
2 *13:11 *13:12 0.339286