*SPEF "IEEE 1481-1998"
*DESIGN "r29_int4"
*DATE "Tue Dec 17 17:56:10 2024"
*VENDOR "Cadence Design Systems, Inc."
*PROGRAM "Innovus"
*VERSION "20.10-p004_1"
*DESIGN_FLOW "COUPLING C" "PIN_CAP NONE" "NAME_SCOPE LOCAL"
*DIVIDER /
*DELIMITER :
*BUS_DELIMITER []
*T_UNIT 1 NS
*C_UNIT 1 PF
*R_UNIT 1 OHM
*L_UNIT 1 HENRY

// MMMC spef file for corner 'default_rc_corner'

*NAME_MAP

*1 FE_OFN18_FE_DBTN0_fsm_out_select_in
*2 FE_OFN17_FE_DBTN0_fsm_out_select_in
*3 FE_OFN16_FE_DBTN0_fsm_out_select_in
*4 FE_OFN15_FE_DBTN0_fsm_out_select_in
*5 FE_OFN14_FE_DBTN0_fsm_out_select_in
*6 FE_OFN13_FE_DBTN0_fsm_out_select_in
*7 FE_OFN12_FE_DBTN0_fsm_out_select_in
*8 FE_OFN11_FE_DBTN0_fsm_out_select_in
*9 FE_OFN10_FE_DBTN0_fsm_out_select_in
*10 FE_OFN9_FE_DBTN0_fsm_out_select_in
*11 FE_OFN8_FE_DBTN0_fsm_out_select_in
*12 FE_OFN7_FE_DBTN0_fsm_out_select_in
*13 FE_OFN6_FE_DBTN0_fsm_out_select_in
*14 FE_OFN5_FE_DBTN0_fsm_out_select_in
*15 FE_OFN4_FE_DBTN0_fsm_out_select_in
*16 FE_OFN3_FE_DBTN0_fsm_out_select_in
*17 FE_OFN2_FE_DBTN0_fsm_out_select_in
*18 FE_OFN1_FE_DBTN0_fsm_out_select_in
*19 FE_OFN0_FE_DBTN0_fsm_out_select_in
*20 FE_DBTN1_rst
*21 FE_DBTN0_fsm_out_select_in
*22 left_in[3]
*23 left_in[2]
*24 left_in[1]
*25 left_in[0]
*26 top_in[3]
*27 top_in[2]
*28 top_in[1]
*29 top_in[0]
*30 right_out[3]
*31 right_out[2]
*32 right_out[1]
*33 right_out[0]
*34 bottom_out[3]
*35 bottom_out[2]
*36 bottom_out[1]
*37 bottom_out[0]
*38 counter_out[463]
*39 counter_out[462]
*40 counter_out[461]
*41 counter_out[460]
*42 counter_out[459]
*43 counter_out[458]
*44 counter_out[457]
*45 counter_out[456]
*46 counter_out[455]
*47 counter_out[454]
*48 counter_out[453]
*49 counter_out[452]
*50 counter_out[451]
*51 counter_out[450]
*52 counter_out[449]
*53 counter_out[448]
*54 counter_out[447]
*55 counter_out[446]
*56 counter_out[445]
*57 counter_out[444]
*58 counter_out[443]
*59 counter_out[442]
*60 counter_out[441]
*61 counter_out[440]
*62 counter_out[439]
*63 counter_out[438]
*64 counter_out[437]
*65 counter_out[436]
*66 counter_out[435]
*67 counter_out[434]
*68 counter_out[433]
*69 counter_out[432]
*70 counter_out[431]
*71 counter_out[430]
*72 counter_out[429]
*73 counter_out[428]
*74 counter_out[427]
*75 counter_out[426]
*76 counter_out[425]
*77 counter_out[424]
*78 counter_out[423]
*79 counter_out[422]
*80 counter_out[421]
*81 counter_out[420]
*82 counter_out[419]
*83 counter_out[418]
*84 counter_out[417]
*85 counter_out[416]
*86 counter_out[415]
*87 counter_out[414]
*88 counter_out[413]
*89 counter_out[412]
*90 counter_out[411]
*91 counter_out[410]
*92 counter_out[409]
*93 counter_out[408]
*94 counter_out[407]
*95 counter_out[406]
*96 counter_out[405]
*97 counter_out[404]
*98 counter_out[403]
*99 counter_out[402]
*100 counter_out[401]
*101 counter_out[400]
*102 counter_out[399]
*103 counter_out[398]
*104 counter_out[397]
*105 counter_out[396]
*106 counter_out[395]
*107 counter_out[394]
*108 counter_out[393]
*109 counter_out[392]
*110 counter_out[391]
*111 counter_out[390]
*112 counter_out[389]
*113 counter_out[388]
*114 counter_out[387]
*115 counter_out[386]
*116 counter_out[385]
*117 counter_out[384]
*118 counter_out[383]
*119 counter_out[382]
*120 counter_out[381]
*121 counter_out[380]
*122 counter_out[379]
*123 counter_out[378]
*124 counter_out[377]
*125 counter_out[376]
*126 counter_out[375]
*127 counter_out[374]
*128 counter_out[373]
*129 counter_out[372]
*130 counter_out[371]
*131 counter_out[370]
*132 counter_out[369]
*133 counter_out[368]
*134 counter_out[367]
*135 counter_out[366]
*136 counter_out[365]
*137 counter_out[364]
*138 counter_out[363]
*139 counter_out[362]
*140 counter_out[361]
*141 counter_out[360]
*142 counter_out[359]
*143 counter_out[358]
*144 counter_out[357]
*145 counter_out[356]
*146 counter_out[355]
*147 counter_out[354]
*148 counter_out[353]
*149 counter_out[352]
*150 counter_out[351]
*151 counter_out[350]
*152 counter_out[349]
*153 counter_out[348]
*154 counter_out[347]
*155 counter_out[346]
*156 counter_out[345]
*157 counter_out[344]
*158 counter_out[343]
*159 counter_out[342]
*160 counter_out[341]
*161 counter_out[340]
*162 counter_out[339]
*163 counter_out[338]
*164 counter_out[337]
*165 counter_out[336]
*166 counter_out[335]
*167 counter_out[334]
*168 counter_out[333]
*169 counter_out[332]
*170 counter_out[331]
*171 counter_out[330]
*172 counter_out[329]
*173 counter_out[328]
*174 counter_out[327]
*175 counter_out[326]
*176 counter_out[325]
*177 counter_out[324]
*178 counter_out[323]
*179 counter_out[322]
*180 counter_out[321]
*181 counter_out[320]
*182 counter_out[319]
*183 counter_out[318]
*184 counter_out[317]
*185 counter_out[316]
*186 counter_out[315]
*187 counter_out[314]
*188 counter_out[313]
*189 counter_out[312]
*190 counter_out[311]
*191 counter_out[310]
*192 counter_out[309]
*193 counter_out[308]
*194 counter_out[307]
*195 counter_out[306]
*196 counter_out[305]
*197 counter_out[304]
*198 counter_out[303]
*199 counter_out[302]
*200 counter_out[301]
*201 counter_out[300]
*202 counter_out[299]
*203 counter_out[298]
*204 counter_out[297]
*205 counter_out[296]
*206 counter_out[295]
*207 counter_out[294]
*208 counter_out[293]
*209 counter_out[292]
*210 counter_out[291]
*211 counter_out[290]
*212 counter_out[289]
*213 counter_out[288]
*214 counter_out[287]
*215 counter_out[286]
*216 counter_out[285]
*217 counter_out[284]
*218 counter_out[283]
*219 counter_out[282]
*220 counter_out[281]
*221 counter_out[280]
*222 counter_out[279]
*223 counter_out[278]
*224 counter_out[277]
*225 counter_out[276]
*226 counter_out[275]
*227 counter_out[274]
*228 counter_out[273]
*229 counter_out[272]
*230 counter_out[271]
*231 counter_out[270]
*232 counter_out[269]
*233 counter_out[268]
*234 counter_out[267]
*235 counter_out[266]
*236 counter_out[265]
*237 counter_out[264]
*238 counter_out[263]
*239 counter_out[262]
*240 counter_out[261]
*241 counter_out[260]
*242 counter_out[259]
*243 counter_out[258]
*244 counter_out[257]
*245 counter_out[256]
*246 counter_out[255]
*247 counter_out[254]
*248 counter_out[253]
*249 counter_out[252]
*250 counter_out[251]
*251 counter_out[250]
*252 counter_out[249]
*253 counter_out[248]
*254 counter_out[247]
*255 counter_out[246]
*256 counter_out[245]
*257 counter_out[244]
*258 counter_out[243]
*259 counter_out[242]
*260 counter_out[241]
*261 counter_out[240]
*262 counter_out[239]
*263 counter_out[238]
*264 counter_out[237]
*265 counter_out[236]
*266 counter_out[235]
*267 counter_out[234]
*268 counter_out[233]
*269 counter_out[232]
*270 counter_out[231]
*271 counter_out[230]
*272 counter_out[229]
*273 counter_out[228]
*274 counter_out[227]
*275 counter_out[226]
*276 counter_out[225]
*277 counter_out[224]
*278 counter_out[223]
*279 counter_out[222]
*280 counter_out[221]
*281 counter_out[220]
*282 counter_out[219]
*283 counter_out[218]
*284 counter_out[217]
*285 counter_out[216]
*286 counter_out[215]
*287 counter_out[214]
*288 counter_out[213]
*289 counter_out[212]
*290 counter_out[211]
*291 counter_out[210]
*292 counter_out[209]
*293 counter_out[208]
*294 counter_out[207]
*295 counter_out[206]
*296 counter_out[205]
*297 counter_out[204]
*298 counter_out[203]
*299 counter_out[202]
*300 counter_out[201]
*301 counter_out[200]
*302 counter_out[199]
*303 counter_out[198]
*304 counter_out[197]
*305 counter_out[196]
*306 counter_out[195]
*307 counter_out[194]
*308 counter_out[193]
*309 counter_out[192]
*310 counter_out[191]
*311 counter_out[190]
*312 counter_out[189]
*313 counter_out[188]
*314 counter_out[187]
*315 counter_out[186]
*316 counter_out[185]
*317 counter_out[184]
*318 counter_out[183]
*319 counter_out[182]
*320 counter_out[181]
*321 counter_out[180]
*322 counter_out[179]
*323 counter_out[178]
*324 counter_out[177]
*325 counter_out[176]
*326 counter_out[175]
*327 counter_out[174]
*328 counter_out[173]
*329 counter_out[172]
*330 counter_out[171]
*331 counter_out[170]
*332 counter_out[169]
*333 counter_out[168]
*334 counter_out[167]
*335 counter_out[166]
*336 counter_out[165]
*337 counter_out[164]
*338 counter_out[163]
*339 counter_out[162]
*340 counter_out[161]
*341 counter_out[160]
*342 counter_out[159]
*343 counter_out[158]
*344 counter_out[157]
*345 counter_out[156]
*346 counter_out[155]
*347 counter_out[154]
*348 counter_out[153]
*349 counter_out[152]
*350 counter_out[151]
*351 counter_out[150]
*352 counter_out[149]
*353 counter_out[148]
*354 counter_out[147]
*355 counter_out[146]
*356 counter_out[145]
*357 counter_out[144]
*358 counter_out[143]
*359 counter_out[142]
*360 counter_out[141]
*361 counter_out[140]
*362 counter_out[139]
*363 counter_out[138]
*364 counter_out[137]
*365 counter_out[136]
*366 counter_out[135]
*367 counter_out[134]
*368 counter_out[133]
*369 counter_out[132]
*370 counter_out[131]
*371 counter_out[130]
*372 counter_out[129]
*373 counter_out[128]
*374 counter_out[127]
*375 counter_out[126]
*376 counter_out[125]
*377 counter_out[124]
*378 counter_out[123]
*379 counter_out[122]
*380 counter_out[121]
*381 counter_out[120]
*382 counter_out[119]
*383 counter_out[118]
*384 counter_out[117]
*385 counter_out[116]
*386 counter_out[115]
*387 counter_out[114]
*388 counter_out[113]
*389 counter_out[112]
*390 counter_out[111]
*391 counter_out[110]
*392 counter_out[109]
*393 counter_out[108]
*394 counter_out[107]
*395 counter_out[106]
*396 counter_out[105]
*397 counter_out[104]
*398 counter_out[103]
*399 counter_out[102]
*400 counter_out[101]
*401 counter_out[100]
*402 counter_out[99]
*403 counter_out[98]
*404 counter_out[97]
*405 counter_out[96]
*406 counter_out[95]
*407 counter_out[94]
*408 counter_out[93]
*409 counter_out[92]
*410 counter_out[91]
*411 counter_out[90]
*412 counter_out[89]
*413 counter_out[88]
*414 counter_out[87]
*415 counter_out[86]
*416 counter_out[85]
*417 counter_out[84]
*418 counter_out[83]
*419 counter_out[82]
*420 counter_out[81]
*421 counter_out[80]
*422 counter_out[79]
*423 counter_out[78]
*424 counter_out[77]
*425 counter_out[76]
*426 counter_out[75]
*427 counter_out[74]
*428 counter_out[73]
*429 counter_out[72]
*430 counter_out[71]
*431 counter_out[70]
*432 counter_out[69]
*433 counter_out[68]
*434 counter_out[67]
*435 counter_out[66]
*436 counter_out[65]
*437 counter_out[64]
*438 counter_out[63]
*439 counter_out[62]
*440 counter_out[61]
*441 counter_out[60]
*442 counter_out[59]
*443 counter_out[58]
*444 counter_out[57]
*445 counter_out[56]
*446 counter_out[55]
*447 counter_out[54]
*448 counter_out[53]
*449 counter_out[52]
*450 counter_out[51]
*451 counter_out[50]
*452 counter_out[49]
*453 counter_out[48]
*454 counter_out[47]
*455 counter_out[46]
*456 counter_out[45]
*457 counter_out[44]
*458 counter_out[43]
*459 counter_out[42]
*460 counter_out[41]
*461 counter_out[40]
*462 counter_out[39]
*463 counter_out[38]
*464 counter_out[37]
*465 counter_out[36]
*466 counter_out[35]
*467 counter_out[34]
*468 counter_out[33]
*469 counter_out[32]
*470 counter_out[31]
*471 counter_out[30]
*472 counter_out[29]
*473 counter_out[28]
*474 counter_out[27]
*475 counter_out[26]
*476 counter_out[25]
*477 counter_out[24]
*478 counter_out[23]
*479 counter_out[22]
*480 counter_out[21]
*481 counter_out[20]
*482 counter_out[19]
*483 counter_out[18]
*484 counter_out[17]
*485 counter_out[16]
*486 counter_out[15]
*487 counter_out[14]
*488 counter_out[13]
*489 counter_out[12]
*490 counter_out[11]
*491 counter_out[10]
*492 counter_out[9]
*493 counter_out[8]
*494 counter_out[7]
*495 counter_out[6]
*496 counter_out[5]
*497 counter_out[4]
*498 counter_out[3]
*499 counter_out[2]
*500 counter_out[1]
*501 counter_out[0]
*502 clk
*503 clk2
*504 rst
*505 fsm_out_select_in
*506 n123
*507 n124
*508 n125
*509 n136
*510 n137
*511 n138
*512 n139
*513 n140
*514 n141
*515 n142
*516 n143
*517 n144
*518 n145
*519 n146
*520 n147
*521 n148
*522 n149
*523 n150
*524 n151
*525 n152
*526 n153
*527 n154
*528 n155
*529 n157
*530 n158
*531 n159
*532 n160
*533 n162
*534 n165
*535 n167
*536 n173
*537 n176
*538 n181
*539 n183
*540 n184
*541 n185
*542 n187
*543 n188
*544 n190
*545 n192
*546 n193
*547 n194
*548 n195
*549 n199
*550 n201
*551 n202
*552 n204
*553 n205
*554 n206
*555 n207
*556 n213
*557 n214
*558 n215
*559 n216
*560 n217
*561 n218
*562 n219
*563 n220
*564 n221
*565 n222
*566 n223
*567 n224
*568 n225
*569 n226
*570 n227
*571 n228
*572 n229
*573 n230
*574 n231
*575 n232
*576 n233
*577 n234
*578 n235
*579 n236
*580 n237
*581 n238
*582 n239
*583 n240
*584 n241
*585 n242
*586 n243
*587 n244
*588 n245
*589 n246
*590 n247
*591 n248
*592 n249
*593 n250
*594 n251
*595 n252
*596 n253
*597 n254
*598 n255
*599 n256
*600 n257
*601 n258
*602 n259
*603 n260
*604 n261
*605 n262
*606 n263
*607 n264
*608 n265
*609 n266
*610 n267
*611 n268
*612 n269
*613 n270
*614 n271
*615 n272
*616 n273
*617 n274
*618 n275
*619 n276
*620 n277
*621 n278
*622 n279
*623 n280
*624 n281
*625 n282
*626 n283
*627 n284
*628 n285
*629 n286
*630 n287
*631 n288
*632 n289
*633 n290
*634 n291
*635 n292
*636 n293
*637 n294
*638 n295
*639 n296
*640 n297
*641 n298
*642 n299
*643 out2reg[28]
*644 out2reg[27]
*645 out2reg[26]
*646 out2reg[25]
*647 out2reg[24]
*648 out2reg[23]
*649 out2reg[22]
*650 out2reg[21]
*651 out2reg[20]
*652 out2reg[19]
*653 out2reg[18]
*654 out2reg[17]
*655 out2reg[16]
*656 out2reg[15]
*657 out2reg[14]
*658 out2reg[13]
*659 out2reg[12]
*660 out2reg[11]
*661 out2reg[10]
*662 out2reg[9]
*663 out2reg[8]
*664 out2reg[7]
*665 out2reg[6]
*666 out2reg[5]
*667 out2reg[4]
*668 out2reg[3]
*669 out2reg[2]
*670 out2reg[1]
*671 out2reg[0]
*672 dout[463]
*673 dout[462]
*674 dout[461]
*675 dout[460]
*676 dout[459]
*677 dout[458]
*678 dout[457]
*679 dout[456]
*680 dout[455]
*681 dout[454]
*682 dout[453]
*683 dout[452]
*684 dout[451]
*685 dout[450]
*686 dout[449]
*687 dout[448]
*688 dout[447]
*689 dout[446]
*690 dout[445]
*691 dout[444]
*692 dout[443]
*693 dout[442]
*694 dout[441]
*695 dout[440]
*696 dout[439]
*697 dout[438]
*698 dout[437]
*699 dout[436]
*700 dout[435]
*701 dout[434]
*702 dout[433]
*703 dout[432]
*704 dout[431]
*705 dout[430]
*706 dout[429]
*707 dout[428]
*708 dout[427]
*709 dout[426]
*710 dout[425]
*711 dout[424]
*712 dout[423]
*713 dout[422]
*714 dout[421]
*715 dout[420]
*716 dout[419]
*717 dout[418]
*718 dout[417]
*719 dout[416]
*720 dout[415]
*721 dout[414]
*722 dout[413]
*723 dout[412]
*724 dout[411]
*725 dout[410]
*726 dout[409]
*727 dout[408]
*728 dout[407]
*729 dout[406]
*730 dout[405]
*731 dout[404]
*732 dout[403]
*733 dout[402]
*734 dout[401]
*735 dout[400]
*736 dout[399]
*737 dout[398]
*738 dout[397]
*739 dout[396]
*740 dout[395]
*741 dout[394]
*742 dout[393]
*743 dout[392]
*744 dout[391]
*745 dout[390]
*746 dout[389]
*747 dout[388]
*748 dout[387]
*749 dout[386]
*750 dout[385]
*751 dout[384]
*752 dout[383]
*753 dout[382]
*754 dout[381]
*755 dout[380]
*756 dout[379]
*757 dout[378]
*758 dout[377]
*759 dout[376]
*760 dout[375]
*761 dout[374]
*762 dout[373]
*763 dout[372]
*764 dout[371]
*765 dout[370]
*766 dout[369]
*767 dout[368]
*768 dout[367]
*769 dout[366]
*770 dout[365]
*771 dout[364]
*772 dout[363]
*773 dout[362]
*774 dout[361]
*775 dout[360]
*776 dout[359]
*777 dout[358]
*778 dout[357]
*779 dout[356]
*780 dout[355]
*781 dout[354]
*782 dout[353]
*783 dout[352]
*784 dout[351]
*785 dout[350]
*786 dout[349]
*787 dout[348]
*788 dout[347]
*789 dout[346]
*790 dout[345]
*791 dout[344]
*792 dout[343]
*793 dout[342]
*794 dout[341]
*795 dout[340]
*796 dout[339]
*797 dout[338]
*798 dout[337]
*799 dout[336]
*800 dout[335]
*801 dout[334]
*802 dout[333]
*803 dout[332]
*804 dout[331]
*805 dout[330]
*806 dout[329]
*807 dout[328]
*808 dout[327]
*809 dout[326]
*810 dout[325]
*811 dout[324]
*812 dout[323]
*813 dout[322]
*814 dout[321]
*815 dout[320]
*816 dout[319]
*817 dout[318]
*818 dout[317]
*819 dout[316]
*820 dout[315]
*821 dout[314]
*822 dout[313]
*823 dout[312]
*824 dout[311]
*825 dout[310]
*826 dout[309]
*827 dout[308]
*828 dout[307]
*829 dout[306]
*830 dout[305]
*831 dout[304]
*832 dout[303]
*833 dout[302]
*834 dout[301]
*835 dout[300]
*836 dout[299]
*837 dout[298]
*838 dout[297]
*839 dout[296]
*840 dout[295]
*841 dout[294]
*842 dout[293]
*843 dout[292]
*844 dout[291]
*845 dout[290]
*846 dout[289]
*847 dout[288]
*848 dout[287]
*849 dout[286]
*850 dout[285]
*851 dout[284]
*852 dout[283]
*853 dout[282]
*854 dout[281]
*855 dout[280]
*856 dout[279]
*857 dout[278]
*858 dout[277]
*859 dout[276]
*860 dout[275]
*861 dout[274]
*862 dout[273]
*863 dout[272]
*864 dout[271]
*865 dout[270]
*866 dout[269]
*867 dout[268]
*868 dout[267]
*869 dout[266]
*870 dout[265]
*871 dout[264]
*872 dout[263]
*873 dout[262]
*874 dout[261]
*875 dout[260]
*876 dout[259]
*877 dout[258]
*878 dout[257]
*879 dout[256]
*880 dout[255]
*881 dout[254]
*882 dout[253]
*883 dout[252]
*884 dout[251]
*885 dout[250]
*886 dout[249]
*887 dout[248]
*888 dout[247]
*889 dout[246]
*890 dout[245]
*891 dout[244]
*892 dout[243]
*893 dout[242]
*894 dout[241]
*895 dout[240]
*896 dout[239]
*897 dout[238]
*898 dout[237]
*899 dout[236]
*900 dout[235]
*901 dout[234]
*902 dout[233]
*903 dout[232]
*904 dout[231]
*905 dout[230]
*906 dout[229]
*907 dout[228]
*908 dout[227]
*909 dout[226]
*910 dout[225]
*911 dout[224]
*912 dout[223]
*913 dout[222]
*914 dout[221]
*915 dout[220]
*916 dout[219]
*917 dout[218]
*918 dout[217]
*919 dout[216]
*920 dout[215]
*921 dout[214]
*922 dout[213]
*923 dout[212]
*924 dout[211]
*925 dout[210]
*926 dout[209]
*927 dout[208]
*928 dout[207]
*929 dout[206]
*930 dout[205]
*931 dout[204]
*932 dout[203]
*933 dout[202]
*934 dout[201]
*935 dout[200]
*936 dout[199]
*937 dout[198]
*938 dout[197]
*939 dout[196]
*940 dout[195]
*941 dout[194]
*942 dout[193]
*943 dout[192]
*944 dout[191]
*945 dout[190]
*946 dout[189]
*947 dout[188]
*948 dout[187]
*949 dout[186]
*950 dout[185]
*951 dout[184]
*952 dout[183]
*953 dout[182]
*954 dout[181]
*955 dout[180]
*956 dout[179]
*957 dout[178]
*958 dout[177]
*959 dout[176]
*960 dout[175]
*961 dout[174]
*962 dout[173]
*963 dout[172]
*964 dout[171]
*965 dout[170]
*966 dout[169]
*967 dout[168]
*968 dout[167]
*969 dout[166]
*970 dout[165]
*971 dout[164]
*972 dout[163]
*973 dout[162]
*974 dout[161]
*975 dout[160]
*976 dout[159]
*977 dout[158]
*978 dout[157]
*979 dout[156]
*980 dout[155]
*981 dout[154]
*982 dout[153]
*983 dout[152]
*984 dout[151]
*985 dout[150]
*986 dout[149]
*987 dout[148]
*988 dout[147]
*989 dout[146]
*990 dout[145]
*991 dout[144]
*992 dout[143]
*993 dout[142]
*994 dout[141]
*995 dout[140]
*996 dout[139]
*997 dout[138]
*998 dout[137]
*999 dout[136]
*1000 dout[135]
*1001 dout[134]
*1002 dout[133]
*1003 dout[132]
*1004 dout[131]
*1005 dout[130]
*1006 dout[129]
*1007 dout[128]
*1008 dout[127]
*1009 dout[126]
*1010 dout[125]
*1011 dout[124]
*1012 dout[123]
*1013 dout[122]
*1014 dout[121]
*1015 dout[120]
*1016 dout[119]
*1017 dout[118]
*1018 dout[117]
*1019 dout[116]
*1020 dout[115]
*1021 dout[114]
*1022 dout[113]
*1023 dout[112]
*1024 dout[111]
*1025 dout[110]
*1026 dout[109]
*1027 dout[108]
*1028 dout[107]
*1029 dout[106]
*1030 dout[105]
*1031 dout[104]
*1032 dout[103]
*1033 dout[102]
*1034 dout[101]
*1035 dout[100]
*1036 dout[99]
*1037 dout[98]
*1038 dout[97]
*1039 dout[96]
*1040 dout[95]
*1041 dout[94]
*1042 dout[93]
*1043 dout[92]
*1044 dout[91]
*1045 dout[90]
*1046 dout[89]
*1047 dout[88]
*1048 dout[87]
*1049 dout[86]
*1050 dout[85]
*1051 dout[84]
*1052 dout[83]
*1053 dout[82]
*1054 dout[81]
*1055 dout[80]
*1056 dout[79]
*1057 dout[78]
*1058 dout[77]
*1059 dout[76]
*1060 dout[75]
*1061 dout[74]
*1062 dout[73]
*1063 dout[72]
*1064 dout[71]
*1065 dout[70]
*1066 dout[69]
*1067 dout[68]
*1068 dout[67]
*1069 dout[66]
*1070 dout[65]
*1071 dout[64]
*1072 dout[63]
*1073 dout[62]
*1074 dout[61]
*1075 dout[60]
*1076 dout[59]
*1077 dout[58]
*1078 dout[57]
*1079 dout[56]
*1080 dout[55]
*1081 dout[54]
*1082 dout[53]
*1083 dout[52]
*1084 dout[51]
*1085 dout[50]
*1086 dout[49]
*1087 dout[48]
*1088 dout[47]
*1089 dout[46]
*1090 dout[45]
*1091 dout[44]
*1092 dout[43]
*1093 dout[42]
*1094 dout[41]
*1095 dout[40]
*1096 dout[39]
*1097 dout[38]
*1098 dout[37]
*1099 dout[36]
*1100 dout[35]
*1101 dout[34]
*1102 dout[33]
*1103 dout[32]
*1104 dout[31]
*1105 dout[30]
*1106 dout[29]
*1107 dout[28]
*1108 dout[27]
*1109 dout[26]
*1110 dout[25]
*1111 dout[24]
*1112 dout[23]
*1113 dout[22]
*1114 dout[21]
*1115 dout[20]
*1116 dout[19]
*1117 dout[18]
*1118 dout[17]
*1119 dout[16]
*1120 dout[15]
*1121 dout[14]
*1122 dout[13]
*1123 dout[12]
*1124 dout[11]
*1125 dout[10]
*1126 dout[9]
*1127 dout[8]
*1128 dout[7]
*1129 dout[6]
*1130 dout[5]
*1131 dout[4]
*1132 dout[3]
*1133 dout[2]
*1134 dout[1]
*1135 dout[0]
*1136 counter_inst_0__u_counter_asyn/dout[15]
*1137 counter_inst_0__u_counter_asyn/dout[14]
*1138 counter_inst_0__u_counter_asyn/dout[13]
*1139 counter_inst_0__u_counter_asyn/dout[12]
*1140 counter_inst_0__u_counter_asyn/dout[11]
*1141 counter_inst_0__u_counter_asyn/dout[10]
*1142 counter_inst_0__u_counter_asyn/dout[9]
*1143 counter_inst_0__u_counter_asyn/dout[8]
*1144 counter_inst_0__u_counter_asyn/dout[7]
*1145 counter_inst_0__u_counter_asyn/dout[6]
*1146 counter_inst_0__u_counter_asyn/dout[5]
*1147 counter_inst_0__u_counter_asyn/dout[4]
*1148 counter_inst_0__u_counter_asyn/dout[3]
*1149 counter_inst_0__u_counter_asyn/dout[2]
*1150 counter_inst_0__u_counter_asyn/dout[1]
*1151 counter_inst_0__u_counter_asyn/dout[0]
*1152 counter_inst_0__u_counter_asyn/ndout[14]
*1153 counter_inst_0__u_counter_asyn/ndout[13]
*1154 counter_inst_0__u_counter_asyn/ndout[12]
*1155 counter_inst_0__u_counter_asyn/ndout[11]
*1156 counter_inst_0__u_counter_asyn/ndout[10]
*1157 counter_inst_0__u_counter_asyn/ndout[9]
*1158 counter_inst_0__u_counter_asyn/ndout[8]
*1159 counter_inst_0__u_counter_asyn/ndout[7]
*1160 counter_inst_0__u_counter_asyn/ndout[6]
*1161 counter_inst_0__u_counter_asyn/ndout[5]
*1162 counter_inst_0__u_counter_asyn/ndout[4]
*1163 counter_inst_0__u_counter_asyn/ndout[3]
*1164 counter_inst_0__u_counter_asyn/ndout[2]
*1165 counter_inst_0__u_counter_asyn/ndout[1]
*1166 counter_inst_0__u_counter_asyn/ndout[0]
*1167 counter_inst_0__u_counter_asyn/reg_gen_15__u_dreg/ndout
*1168 counter_inst_1__u_counter_asyn/dout[15]
*1169 counter_inst_1__u_counter_asyn/dout[14]
*1170 counter_inst_1__u_counter_asyn/dout[13]
*1171 counter_inst_1__u_counter_asyn/dout[12]
*1172 counter_inst_1__u_counter_asyn/dout[11]
*1173 counter_inst_1__u_counter_asyn/dout[10]
*1174 counter_inst_1__u_counter_asyn/dout[9]
*1175 counter_inst_1__u_counter_asyn/dout[8]
*1176 counter_inst_1__u_counter_asyn/dout[7]
*1177 counter_inst_1__u_counter_asyn/dout[6]
*1178 counter_inst_1__u_counter_asyn/dout[5]
*1179 counter_inst_1__u_counter_asyn/dout[4]
*1180 counter_inst_1__u_counter_asyn/dout[3]
*1181 counter_inst_1__u_counter_asyn/dout[2]
*1182 counter_inst_1__u_counter_asyn/dout[1]
*1183 counter_inst_1__u_counter_asyn/dout[0]
*1184 counter_inst_1__u_counter_asyn/ndout[14]
*1185 counter_inst_1__u_counter_asyn/ndout[13]
*1186 counter_inst_1__u_counter_asyn/ndout[12]
*1187 counter_inst_1__u_counter_asyn/ndout[11]
*1188 counter_inst_1__u_counter_asyn/ndout[10]
*1189 counter_inst_1__u_counter_asyn/ndout[9]
*1190 counter_inst_1__u_counter_asyn/ndout[8]
*1191 counter_inst_1__u_counter_asyn/ndout[7]
*1192 counter_inst_1__u_counter_asyn/ndout[6]
*1193 counter_inst_1__u_counter_asyn/ndout[5]
*1194 counter_inst_1__u_counter_asyn/ndout[4]
*1195 counter_inst_1__u_counter_asyn/ndout[3]
*1196 counter_inst_1__u_counter_asyn/ndout[2]
*1197 counter_inst_1__u_counter_asyn/ndout[1]
*1198 counter_inst_1__u_counter_asyn/ndout[0]
*1199 counter_inst_1__u_counter_asyn/reg_gen_15__u_dreg/ndout
*1200 counter_inst_2__u_counter_asyn/dout[15]
*1201 counter_inst_2__u_counter_asyn/dout[14]
*1202 counter_inst_2__u_counter_asyn/dout[13]
*1203 counter_inst_2__u_counter_asyn/dout[12]
*1204 counter_inst_2__u_counter_asyn/dout[11]
*1205 counter_inst_2__u_counter_asyn/dout[10]
*1206 counter_inst_2__u_counter_asyn/dout[9]
*1207 counter_inst_2__u_counter_asyn/dout[8]
*1208 counter_inst_2__u_counter_asyn/dout[7]
*1209 counter_inst_2__u_counter_asyn/dout[6]
*1210 counter_inst_2__u_counter_asyn/dout[5]
*1211 counter_inst_2__u_counter_asyn/dout[4]
*1212 counter_inst_2__u_counter_asyn/dout[3]
*1213 counter_inst_2__u_counter_asyn/dout[2]
*1214 counter_inst_2__u_counter_asyn/dout[1]
*1215 counter_inst_2__u_counter_asyn/dout[0]
*1216 counter_inst_2__u_counter_asyn/ndout[14]
*1217 counter_inst_2__u_counter_asyn/ndout[13]
*1218 counter_inst_2__u_counter_asyn/ndout[12]
*1219 counter_inst_2__u_counter_asyn/ndout[11]
*1220 counter_inst_2__u_counter_asyn/ndout[10]
*1221 counter_inst_2__u_counter_asyn/ndout[9]
*1222 counter_inst_2__u_counter_asyn/ndout[8]
*1223 counter_inst_2__u_counter_asyn/ndout[7]
*1224 counter_inst_2__u_counter_asyn/ndout[6]
*1225 counter_inst_2__u_counter_asyn/ndout[5]
*1226 counter_inst_2__u_counter_asyn/ndout[4]
*1227 counter_inst_2__u_counter_asyn/ndout[3]
*1228 counter_inst_2__u_counter_asyn/ndout[2]
*1229 counter_inst_2__u_counter_asyn/ndout[1]
*1230 counter_inst_2__u_counter_asyn/ndout[0]
*1231 counter_inst_2__u_counter_asyn/reg_gen_15__u_dreg/ndout
*1232 counter_inst_3__u_counter_asyn/dout[15]
*1233 counter_inst_3__u_counter_asyn/dout[14]
*1234 counter_inst_3__u_counter_asyn/dout[13]
*1235 counter_inst_3__u_counter_asyn/dout[12]
*1236 counter_inst_3__u_counter_asyn/dout[11]
*1237 counter_inst_3__u_counter_asyn/dout[10]
*1238 counter_inst_3__u_counter_asyn/dout[9]
*1239 counter_inst_3__u_counter_asyn/dout[8]
*1240 counter_inst_3__u_counter_asyn/dout[7]
*1241 counter_inst_3__u_counter_asyn/dout[6]
*1242 counter_inst_3__u_counter_asyn/dout[5]
*1243 counter_inst_3__u_counter_asyn/dout[4]
*1244 counter_inst_3__u_counter_asyn/dout[3]
*1245 counter_inst_3__u_counter_asyn/dout[2]
*1246 counter_inst_3__u_counter_asyn/dout[1]
*1247 counter_inst_3__u_counter_asyn/dout[0]
*1248 counter_inst_3__u_counter_asyn/ndout[14]
*1249 counter_inst_3__u_counter_asyn/ndout[13]
*1250 counter_inst_3__u_counter_asyn/ndout[12]
*1251 counter_inst_3__u_counter_asyn/ndout[11]
*1252 counter_inst_3__u_counter_asyn/ndout[10]
*1253 counter_inst_3__u_counter_asyn/ndout[9]
*1254 counter_inst_3__u_counter_asyn/ndout[8]
*1255 counter_inst_3__u_counter_asyn/ndout[7]
*1256 counter_inst_3__u_counter_asyn/ndout[6]
*1257 counter_inst_3__u_counter_asyn/ndout[5]
*1258 counter_inst_3__u_counter_asyn/ndout[4]
*1259 counter_inst_3__u_counter_asyn/ndout[3]
*1260 counter_inst_3__u_counter_asyn/ndout[2]
*1261 counter_inst_3__u_counter_asyn/ndout[1]
*1262 counter_inst_3__u_counter_asyn/ndout[0]
*1263 counter_inst_3__u_counter_asyn/reg_gen_15__u_dreg/ndout
*1264 counter_inst_4__u_counter_asyn/dout[15]
*1265 counter_inst_4__u_counter_asyn/dout[14]
*1266 counter_inst_4__u_counter_asyn/dout[13]
*1267 counter_inst_4__u_counter_asyn/dout[12]
*1268 counter_inst_4__u_counter_asyn/dout[11]
*1269 counter_inst_4__u_counter_asyn/dout[10]
*1270 counter_inst_4__u_counter_asyn/dout[9]
*1271 counter_inst_4__u_counter_asyn/dout[8]
*1272 counter_inst_4__u_counter_asyn/dout[7]
*1273 counter_inst_4__u_counter_asyn/dout[6]
*1274 counter_inst_4__u_counter_asyn/dout[5]
*1275 counter_inst_4__u_counter_asyn/dout[4]
*1276 counter_inst_4__u_counter_asyn/dout[3]
*1277 counter_inst_4__u_counter_asyn/dout[2]
*1278 counter_inst_4__u_counter_asyn/dout[1]
*1279 counter_inst_4__u_counter_asyn/dout[0]
*1280 counter_inst_4__u_counter_asyn/ndout[14]
*1281 counter_inst_4__u_counter_asyn/ndout[13]
*1282 counter_inst_4__u_counter_asyn/ndout[12]
*1283 counter_inst_4__u_counter_asyn/ndout[11]
*1284 counter_inst_4__u_counter_asyn/ndout[10]
*1285 counter_inst_4__u_counter_asyn/ndout[9]
*1286 counter_inst_4__u_counter_asyn/ndout[8]
*1287 counter_inst_4__u_counter_asyn/ndout[7]
*1288 counter_inst_4__u_counter_asyn/ndout[6]
*1289 counter_inst_4__u_counter_asyn/ndout[5]
*1290 counter_inst_4__u_counter_asyn/ndout[4]
*1291 counter_inst_4__u_counter_asyn/ndout[3]
*1292 counter_inst_4__u_counter_asyn/ndout[2]
*1293 counter_inst_4__u_counter_asyn/ndout[1]
*1294 counter_inst_4__u_counter_asyn/ndout[0]
*1295 counter_inst_4__u_counter_asyn/reg_gen_15__u_dreg/ndout
*1296 counter_inst_5__u_counter_asyn/dout[15]
*1297 counter_inst_5__u_counter_asyn/dout[14]
*1298 counter_inst_5__u_counter_asyn/dout[13]
*1299 counter_inst_5__u_counter_asyn/dout[12]
*1300 counter_inst_5__u_counter_asyn/dout[11]
*1301 counter_inst_5__u_counter_asyn/dout[10]
*1302 counter_inst_5__u_counter_asyn/dout[9]
*1303 counter_inst_5__u_counter_asyn/dout[8]
*1304 counter_inst_5__u_counter_asyn/dout[7]
*1305 counter_inst_5__u_counter_asyn/dout[6]
*1306 counter_inst_5__u_counter_asyn/dout[5]
*1307 counter_inst_5__u_counter_asyn/dout[4]
*1308 counter_inst_5__u_counter_asyn/dout[3]
*1309 counter_inst_5__u_counter_asyn/dout[2]
*1310 counter_inst_5__u_counter_asyn/dout[1]
*1311 counter_inst_5__u_counter_asyn/dout[0]
*1312 counter_inst_5__u_counter_asyn/ndout[14]
*1313 counter_inst_5__u_counter_asyn/ndout[13]
*1314 counter_inst_5__u_counter_asyn/ndout[12]
*1315 counter_inst_5__u_counter_asyn/ndout[11]
*1316 counter_inst_5__u_counter_asyn/ndout[10]
*1317 counter_inst_5__u_counter_asyn/ndout[9]
*1318 counter_inst_5__u_counter_asyn/ndout[8]
*1319 counter_inst_5__u_counter_asyn/ndout[7]
*1320 counter_inst_5__u_counter_asyn/ndout[6]
*1321 counter_inst_5__u_counter_asyn/ndout[5]
*1322 counter_inst_5__u_counter_asyn/ndout[4]
*1323 counter_inst_5__u_counter_asyn/ndout[3]
*1324 counter_inst_5__u_counter_asyn/ndout[2]
*1325 counter_inst_5__u_counter_asyn/ndout[1]
*1326 counter_inst_5__u_counter_asyn/ndout[0]
*1327 counter_inst_5__u_counter_asyn/reg_gen_15__u_dreg/ndout
*1328 counter_inst_6__u_counter_asyn/dout[15]
*1329 counter_inst_6__u_counter_asyn/dout[14]
*1330 counter_inst_6__u_counter_asyn/dout[13]
*1331 counter_inst_6__u_counter_asyn/dout[12]
*1332 counter_inst_6__u_counter_asyn/dout[11]
*1333 counter_inst_6__u_counter_asyn/dout[10]
*1334 counter_inst_6__u_counter_asyn/dout[9]
*1335 counter_inst_6__u_counter_asyn/dout[8]
*1336 counter_inst_6__u_counter_asyn/dout[7]
*1337 counter_inst_6__u_counter_asyn/dout[6]
*1338 counter_inst_6__u_counter_asyn/dout[5]
*1339 counter_inst_6__u_counter_asyn/dout[4]
*1340 counter_inst_6__u_counter_asyn/dout[3]
*1341 counter_inst_6__u_counter_asyn/dout[2]
*1342 counter_inst_6__u_counter_asyn/dout[1]
*1343 counter_inst_6__u_counter_asyn/dout[0]